CHIKV_MacB-x0294_A_501_CHIKV_MacB-x0294+A+501+1
     RDKit          3D

 13 13  0  0  0  0  0  0  0  0999 V2000
    1.0870   -7.4440   25.2380 N   0  0  0  0  0  0  0  0  0  0  0  0
    1.9890   -7.3620   24.5610 C   0  0  0  0  0  0  0  0  0  0  0  0
    3.1890   -7.1390   23.7640 C   0  0  0  0  0  0  0  0  0  0  0  0
    3.8980   -8.4100   23.4270 C   0  0  0  0  0  0  0  0  0  0  0  0
    3.4640   -9.6240   23.7080 N   0  0  0  0  0  0  0  0  0  0  0  0
    4.4240  -10.4780   23.2040 C   0  0  0  0  0  0  0  0  0  0  0  0
    5.4270   -9.7790   22.6200 C   0  0  0  0  0  0  0  0  0  0  0  0
    5.0940   -8.4520   22.7610 N   0  0  0  0  0  0  0  0  0  0  0  0
    5.8610   -7.3180   22.2390 C   0  0  0  0  0  0  0  0  0  0  0  0
    7.3410   -7.1990   22.4870 C   0  0  0  0  0  0  0  0  0  0  0  0
    7.9270   -8.3490   22.8190 F   0  0  0  0  0  0  0  0  0  0  0  0
    7.5960   -6.3370   23.4800 F   0  0  0  0  0  0  0  0  0  0  0  0
    7.9820   -6.7510   21.3920 F   0  0  0  0  0  0  0  0  0  0  0  0
 11 10  1  0
 12 10  1  0
 13 10  1  0
 10  9  1  0
  9  8  1  0
  8  7  1  0
  7  6  2  0
  6  5  1  0
  5  4  2  0
  8  4  1  0
  4  3  1  0
  3  2  1  0
  2  1  3  0
M  END
