CHIKV_MacB-x0270_A_304_CHIKV_MacB-x0300+A+401+1
  PyMOL2.6          3D                             0

 26 27  0  0  0  0  0  0  0  0999 V2000
   16.2072   13.5026   12.9508 H   0  0  0  0  0  0  0  0  0  0  0  0
   21.0227   14.6644   12.1366 H   0  0  0  0  0  0  0  0  0  0  0  0
   16.3661    8.4299    9.5367 H   0  0  0  0  0  0  0  0  0  0  0  0
   14.8358    9.3285    9.6702 H   0  0  0  0  0  0  0  0  0  0  0  0
   19.2526   10.4434   10.1582 H   0  0  0  0  0  0  0  0  0  0  0  0
   15.5750    8.6111   11.1213 H   0  0  0  0  0  0  0  0  0  0  0  0
   18.7466   15.0977   14.3038 H   0  0  0  0  0  0  0  0  0  0  0  0
   21.6291   11.0744    9.8541 H   0  0  0  0  0  0  0  0  0  0  0  0
   17.4543   15.7854   13.2906 H   0  0  0  0  0  0  0  0  0  0  0  0
   22.5127   13.1523   10.8464 H   0  0  0  0  0  0  0  0  0  0  0  0
   17.1587   10.6499    9.6861 H   0  0  0  0  0  0  0  0  0  0  0  0
   19.1523   15.9075   12.7719 H   0  0  0  0  0  0  0  0  0  0  0  0
   15.4490   10.8470   12.3040 O   0  0  0  0  0  0  0  0  0  0  0  0
   16.3780   11.0360   11.5130 C   0  0  0  0  0  0  0  0  0  0  0  0
   16.5180   10.3250   10.3960 N   0  0  0  0  0  0  0  0  0  0  0  0
   15.7780    9.0970   10.1670 C   0  0  0  0  0  0  0  0  0  0  0  0
   17.3980   12.1150   11.7590 C   0  0  0  0  0  0  0  0  0  0  0  0
   18.7860   12.1870   11.3460 C   0  0  0  0  0  0  0  0  0  0  0  0
   19.3070   13.3760   11.8840 C   0  0  0  0  0  0  0  0  0  0  0  0
   18.2970   14.0100   12.5750 N   0  0  0  0  0  0  0  0  0  0  0  0
   18.4200   15.2800   13.2800 C   0  0  0  0  0  0  0  0  0  0  0  0
   17.1630   13.2460   12.4940 C   0  0  0  0  0  0  0  0  0  0  0  0
   19.6340   11.3630   10.6020 C   0  0  0  0  0  0  0  0  0  0  0  0
   20.9670   11.7210   10.4300 C   0  0  0  0  0  0  0  0  0  0  0  0
   21.4630   12.8930   10.9840 C   0  0  0  0  0  0  0  0  0  0  0  0
   20.6370   13.7380   11.7110 C   0  0  0  0  0  0  0  0  0  0  0  0
 13 14  2  0  0  0  0
 11 15  1  0  0  0  0
 14 15  1  0  0  0  0
  3 16  1  0  0  0  0
  4 16  1  0  0  0  0
  6 16  1  0  0  0  0
 15 16  1  0  0  0  0
 14 17  1  0  0  0  0
 17 22  2  0  0  0  0
 17 18  1  0  0  0  0
 18 19  1  0  0  0  0
 19 26  2  0  0  0  0
 19 20  1  0  0  0  0
  7 21  1  0  0  0  0
  9 21  1  0  0  0  0
 12 21  1  0  0  0  0
 20 21  1  0  0  0  0
  1 22  1  0  0  0  0
 20 22  1  0  0  0  0
  5 23  1  0  0  0  0
 18 23  2  0  0  0  0
  8 24  1  0  0  0  0
 23 24  1  0  0  0  0
 10 25  1  0  0  0  0
 24 25  2  0  0  0  0
  2 26  1  0  0  0  0
 25 26  1  0  0  0  0
M  END
